
     RDKit          3D

 31 31  0  0  0  0  0  0  0  0999 V2000
   -3.7197   -1.4634   -0.4367 C   0  0  0  0  0  0  0  0  0  0  0  0
   -3.2049   -0.3142    0.4028 C   0  0  0  0  0  0  0  0  0  0  0  0
   -3.6195    0.9901   -0.2274 C   0  0  0  0  0  0  0  0  0  0  0  0
   -1.7431   -0.3928    0.6095 C   0  0  0  0  0  0  0  0  0  0  0  0
   -1.2622   -0.5101    1.7512 O   0  0  0  0  0  0  0  0  0  0  0  0
   -0.8124   -0.3389   -0.4831 N   0  0  0  0  0  0  0  0  0  0  0  0
    0.5934   -0.4143   -0.2905 C   0  0  0  0  0  0  0  0  0  0  0  0
    1.3248   -1.5713   -0.2804 C   0  0  0  0  0  0  0  0  0  0  0  0
    2.6772   -1.5300   -0.0863 C   0  0  0  0  0  0  0  0  0  0  0  0
    3.3548   -0.3382    0.1052 C   0  0  0  0  0  0  0  0  0  0  0  0
    2.6421    0.8326    0.0993 C   0  0  0  0  0  0  0  0  0  0  0  0
    1.2737    0.7668   -0.0992 C   0  0  0  0  0  0  0  0  0  0  0  0
    3.2650    2.1756    0.3074 C   0  0  0  0  0  0  0  0  0  0  0  0
    4.2175    2.3708   -0.6588 F   0  0  0  0  0  0  0  0  0  0  0  0
    2.2857    3.1618    0.0864 F   0  0  0  0  0  0  0  0  0  0  0  0
    3.7489    2.3323    1.5849 F   0  0  0  0  0  0  0  0  0  0  0  0
    4.7679   -0.3191    0.2929 N   0  0  0  0  0  4  0  0  0  0  0  0
    5.3936    0.4944    0.9821 O   0  0  0  0  0  0  0  0  0  0  0  0
    5.4777   -1.3043   -0.3577 O   0  0  0  0  0  1  0  0  0  0  0  0
   -3.8240   -0.3905    1.6478 O   0  0  0  0  0  0  0  0  0  0  0  0
   -3.3670   -1.3984   -1.4836 H   0  0  0  0  0  0  0  0  0  0  0  0
   -4.8373   -1.3580   -0.4589 H   0  0  0  0  0  0  0  0  0  0  0  0
   -3.4758   -2.4371    0.0315 H   0  0  0  0  0  0  0  0  0  0  0  0
   -2.6998    1.6314   -0.2832 H   0  0  0  0  0  0  0  0  0  0  0  0
   -4.3651    1.5241    0.3746 H   0  0  0  0  0  0  0  0  0  0  0  0
   -3.9218    0.7942   -1.2639 H   0  0  0  0  0  0  0  0  0  0  0  0
   -1.2422   -0.2400   -1.4348 H   0  0  0  0  0  0  0  0  0  0  0  0
    0.7759   -2.5035   -0.4325 H   0  0  0  0  0  0  0  0  0  0  0  0
    3.2707   -2.4419   -0.0759 H   0  0  0  0  0  0  0  0  0  0  0  0
    0.7028    1.7042   -0.1045 H   0  0  0  0  0  0  0  0  0  0  0  0
   -3.6772    0.4877    2.1160 H   0  0  0  0  0  0  0  0  0  0  0  0
  1  2  1  0
  2  3  1  0
  2  4  1  0
  4  5  2  0
  4  6  1  0
  6  7  1  0
  7  8  2  0
  8  9  1  0
  9 10  2  0
 10 11  1  0
 11 12  2  0
 11 13  1  0
 13 14  1  0
 13 15  1  0
 13 16  1  0
 10 17  1  0
 17 18  2  0
 17 19  1  0
  2 20  1  0
 12  7  1  0
  1 21  1  0
  1 22  1  0
  1 23  1  0
  3 24  1  0
  3 25  1  0
  3 26  1  0
  6 27  1  0
  8 28  1  0
  9 29  1  0
 12 30  1  0
 20 31  1  0
M  CHG  2  17   1  19  -1
M  END
$$$$
