
 OpenBabel11132315233D

 51 54  0  0  1  0  0  0  0  0999 V2000
    2.5237   -0.4267    0.3596 C   0  0  0  0  0  0  0  0  0  0  0  0
    2.2037   -0.5888   -1.1238 C   0  0  0  0  0  0  0  0  0  0  0  0
    2.5794    0.6246   -1.9925 C   0  0  2  0  0  0  0  0  0  0  0  0
    1.8699    1.9477   -1.5944 C   0  0  0  0  0  0  0  0  0  0  0  0
    1.7230    2.7811   -2.8861 C   0  0  0  0  0  0  0  0  0  0  0  0
    2.4402    1.9618   -3.9501 C   0  0  2  0  0  0  0  0  0  0  0  0
    2.2660    0.4845   -3.5286 C   0  0  2  0  0  0  0  0  0  0  0  0
    3.3024   -0.2705   -4.3505 C   0  0  0  0  0  0  0  0  0  0  0  0
    3.5623    0.0558   -5.6307 C   0  0  0  0  0  0  0  0  0  0  0  0
    2.8581    1.1364   -6.3248 C   0  0  0  0  0  0  0  0  0  0  0  0
    2.6372    1.1481   -7.6621 C   0  0  0  0  0  0  0  0  0  0  0  0
    3.0965    0.0780   -8.6343 C   0  0  0  0  0  0  0  0  0  0  0  0
    3.6601    0.6790   -9.9131 C   0  0  0  0  0  0  0  0  0  0  0  0
    2.6655    1.6320  -10.5213 C   0  0  0  0  0  0  0  0  0  0  0  0
    2.6110    1.8437  -11.7305 O   0  0  0  0  0  0  0  0  0  0  0  0
    1.7903    2.4011   -9.6075 C   0  0  0  0  0  0  0  0  0  0  0  0
    1.8131    2.2003   -8.2783 C   0  0  0  0  0  0  0  0  0  0  0  0
    0.9540    3.0773   -7.3919 C   0  0  0  0  0  0  0  0  0  0  0  0
    0.8755    2.6119   -5.9355 C   0  0  0  0  0  0  0  0  0  0  0  0
    2.2787    2.2579   -5.4471 C   0  0  1  0  0  0  0  0  0  0  0  0
    0.9006   -0.2051   -3.8549 C   0  0  0  0  0  0  0  0  0  0  0  0
   -0.4021    0.3650   -3.3122 C   0  0  0  0  0  0  0  0  0  0  0  0
    3.9980    0.8403   -1.8323 O   0  0  0  0  0  0  0  0  0  0  0  0
    2.0204    0.4466    0.7847 H   0  0  0  0  0  0  0  0  0  0  0  0
    3.5994   -0.3278    0.5318 H   0  0  0  0  0  0  0  0  0  0  0  0
    2.1838   -1.3095    0.9114 H   0  0  0  0  0  0  0  0  0  0  0  0
    2.7470   -1.4710   -1.4845 H   0  0  0  0  0  0  0  0  0  0  0  0
    1.1373   -0.8152   -1.2061 H   0  0  0  0  0  0  0  0  0  0  0  0
    0.8809    1.7717   -1.1609 H   0  0  0  0  0  0  0  0  0  0  0  0
    2.4486    2.5137   -0.8554 H   0  0  0  0  0  0  0  0  0  0  0  0
    0.6684    2.9528   -3.1088 H   0  0  0  0  0  0  0  0  0  0  0  0
    2.1859    3.7673   -2.7692 H   0  0  0  0  0  0  0  0  0  0  0  0
    3.5048    2.2128   -3.7794 H   0  0  0  0  0  0  0  0  0  0  0  0
    3.8242   -1.1000   -3.8815 H   0  0  0  0  0  0  0  0  0  0  0  0
    4.2897   -0.5390   -6.1728 H   0  0  0  0  0  0  0  0  0  0  0  0
    3.8557   -0.5851   -8.2128 H   0  0  0  0  0  0  0  0  0  0  0  0
    2.2325   -0.5554   -8.8787 H   0  0  0  0  0  0  0  0  0  0  0  0
    4.5916    1.2233   -9.7217 H   0  0  0  0  0  0  0  0  0  0  0  0
    3.8646   -0.1213  -10.6325 H   0  0  0  0  0  0  0  0  0  0  0  0
    1.1746    3.1609  -10.0751 H   0  0  0  0  0  0  0  0  0  0  0  0
    1.3709    4.0934   -7.4084 H   0  0  0  0  0  0  0  0  0  0  0  0
   -0.0642    3.1431   -7.7956 H   0  0  0  0  0  0  0  0  0  0  0  0
    0.4365    3.4149   -5.3342 H   0  0  0  0  0  0  0  0  0  0  0  0
    0.2023    1.7510   -5.8714 H   0  0  0  0  0  0  0  0  0  0  0  0
    2.9047    3.1468   -5.6293 H   0  0  0  0  0  0  0  0  0  0  0  0
    0.7735   -0.2799   -4.9427 H   0  0  0  0  0  0  0  0  0  0  0  0
    0.9572   -1.2506   -3.5197 H   0  0  0  0  0  0  0  0  0  0  0  0
   -0.6129    1.3608   -3.7034 H   0  0  0  0  0  0  0  0  0  0  0  0
   -1.2335   -0.2757   -3.6281 H   0  0  0  0  0  0  0  0  0  0  0  0
   -0.4297    0.3946   -2.2227 H   0  0  0  0  0  0  0  0  0  0  0  0
    4.1626    1.1787   -0.9369 H   0  0  0  0  0  0  0  0  0  0  0  0
  1  2  1  0  0  0  0
  1 24  1  0  0  0  0
  1 25  1  0  0  0  0
  1 26  1  0  0  0  0
  2 27  1  0  0  0  0
  2 28  1  0  0  0  0
  3  4  1  0  0  0  0
  3  7  1  0  0  0  0
  3 23  1  1  0  0  0
  3  2  1  0  0  0  0
  4  5  1  0  0  0  0
  4 29  1  0  0  0  0
  4 30  1  0  0  0  0
  5  6  1  0  0  0  0
  5 31  1  0  0  0  0
  5 32  1  0  0  0  0
  6  7  1  0  0  0  0
  6 20  1  0  0  0  0
  6 33  1  6  0  0  0
  7  8  1  0  0  0  0
  7 21  1  1  0  0  0
  8  9  2  0  0  0  0
  8 34  1  0  0  0  0
  9 10  1  0  0  0  0
  9 35  1  0  0  0  0
 10 11  2  0  0  0  0
 10 20  1  0  0  0  0
 11 12  1  0  0  0  0
 11 17  1  0  0  0  0
 12 13  1  0  0  0  0
 12 36  1  0  0  0  0
 12 37  1  0  0  0  0
 13 14  1  0  0  0  0
 13 38  1  0  0  0  0
 13 39  1  0  0  0  0
 14 15  2  0  0  0  0
 14 16  1  0  0  0  0
 16 17  2  0  0  0  0
 16 40  1  0  0  0  0
 17 18  1  0  0  0  0
 18 19  1  0  0  0  0
 18 41  1  0  0  0  0
 18 42  1  0  0  0  0
 19 20  1  0  0  0  0
 19 43  1  0  0  0  0
 19 44  1  0  0  0  0
 20 45  1  6  0  0  0
 21 22  1  0  0  0  0
 21 46  1  0  0  0  0
 21 47  1  0  0  0  0
 22 48  1  0  0  0  0
 22 49  1  0  0  0  0
 22 50  1  0  0  0  0
 23 51  1  0  0  0  0
M  END
$$$$
